Circuit: * C:\dev\c3\functional-schematic\test_measure_nor.asc

Ignoring BSIM parameter XL
Ignoring BSIM parameter XW
Ignoring BSIM parameter ACM
Ignoring BSIM parameter LDIF
Ignoring BSIM parameter HDIF
Ignoring BSIM parameter CTA
Ignoring BSIM parameter CTP
Ignoring BSIM parameter PTA
Ignoring BSIM parameter PTP
Ignoring BSIM parameter XL
Ignoring BSIM parameter XW
Ignoring BSIM parameter ACM
Ignoring BSIM parameter LDIF
Ignoring BSIM parameter HDIF
Ignoring BSIM parameter CTA
Ignoring BSIM parameter CTP
Ignoring BSIM parameter PTA
Ignoring BSIM parameter PTP
Error on line 57 : .model pmos pmos level = 49 lint = 1.5e-08 tox = 2.5e-09 vth0 = -0.303 rdsw = 300 lmin=1.0e-7 lmax=1.0e-7 wmin=1.0e-7 wmax=1.0e-4 tref=27.0 version =3.1 xj= 4.0000000e-08 nch= 1.0400000e+18 lln= 1.0000000 lwn= 0.00 wln= 0.00 wwn= 1.0000000 ll= 0.00 lw= 0.00 lwl= 0.00 wint= 0.00 wl= 0.00 ww= 0.00 wwl= 0.00 mobmod= 1 binunit= 2 xl= 0.00 xw= 0.00 binflag= 0 dwg= 0.00 dwb= 0.00 acm= 0 ldif=0.00 hdif=0.00 rsh= 7 rd= 0 rs= 0 rsc= 0 rdc= 0 k1= 0.3910000 k2= 1.0000000e-02 k3= 0.00 dvt0= 2.6700001 dvt1= 0.5300000 dvt2= 5.0000000e-02 dvt0w= 0.00 dvt1w= 0.00 dvt2w= 0.00 nlx= 7.5000000e-08 w0= 0.00 k3b= 0.00 ngate= 5.0000000e+20 vsat= 1.0500000e+05 ua= -5.0000000e-10 ub= 1.5000000e-18 uc= -2.9999999e-11 prwb= 0.00 prwg= 0.00 wr= 1.0000000 u0= 5.5000000e-03 a0= 2.0000000 keta= 4.0000000e-02 a1= 0.00 a2= 0.9900000 ags= -0.1000000 b0= 0.00 b1= 0.00 voff= -7.0000000e-02 nfactor= 1.5000000 cit= 0.00 cdsc= 0.00 cdscb= 0.00 cdscd= 0.00 eta0= 0.2500000 etab= 0.00 dsub= 0.8000000 pclm= 0.1000000 pdiblc1= 1.2000000e-02 pdiblc2= 7.5000000e-03 pdiblcb= -1.3500000e-02 drout= 0.9000000 pscbe1= 8.6600000e+08 pscbe2= 1.0000000e-20 pvag= -0.2800000 delta= 1.0100000e-02 alpha0= 0.00 beta0= 30.0000000 kt1= -0.3400000 kt2= -5.2700000e-02 at= 0.00 ute= -1.2300000 ua1= -8.6300000e-10 ub1= 2.0000001e-18 uc1= 0.00 kt1l= 4.0000000e-09 prt= 0.00 cj= 0.0015 mj= 0.7175511 pb= 1.24859 cjsw= 2e-10 mjsw= 0.3706993 php= 0.7731149 cjgate= 2e-14 cta= 9.290391e-04 ctp= 7.456211e-04 pta= 1.527748e-03 ptp= 1.56325e-03 js=2.50e-08 jsw=4.00e-13 n=1.0 xti=3.0 cgdo=3.49e-10 cgso=3.49e-10 cgbo=0.0e+00 capmod= 2 nqsmod= 0 elm= 5 xpart= 1 cgsl= 0.582e-10 cgdl= 0.582e-10 ckappa= 0.28 cf= 1.177e-10 clc= 5.4750000e-08 cle= 6.4600000 dlc= 2e-08 dwc= 0
	* Unrecognized parameter "binflag" -- ignored
	* Unrecognized parameter "rsc" -- ignored
	* Unrecognized parameter "rdc" -- ignored
	* Unrecognized parameter "cjgate" -- ignored
Error on line 1134 : .model nmos nmos level = 49 lint = 1.5e-08 tox = 2.5e-09 vth0 = 0.2607 rdsw = 180 lmin=1.0e-7 lmax=1.0e-7 wmin=1.0e-7 wmax=1.0e-4 tref=27.0 version =3.1 xj= 4.0000000e-08 nch= 9.7000000e+17 lln= 1.0000000 lwn= 1.0000000 wln= 0.00 wwn= 0.00 ll= 0.00 lw= 0.00 lwl= 0.00 wint= 0.00 wl= 0.00 ww= 0.00 wwl= 0.00 mobmod= 1 binunit= 2 xl= 0.00 xw= 0.00 binflag= 0 dwg= 0.00 dwb= 0.00 acm= 0 ldif=0.00 hdif=0.00 rsh= 7 rd= 0 rs= 0 rsc= 0 rdc= 0 k1= 0.3950000 k2= 1.0000000e-02 k3= 0.00 dvt0= 1.0000000 dvt1= 0.4000000 dvt2= 0.1500000 dvt0w= 0.00 dvt1w= 0.00 dvt2w= 0.00 nlx= 4.8000000e-08 w0= 0.00 k3b= 0.00 ngate= 5.0000000e+20 vsat= 1.1000000e+05 ua= -6.0000000e-10 ub= 8.0000000e-19 uc= -2.9999999e-11 prwb= 0.00 prwg= 0.00 wr= 1.0000000 u0= 1.7999999e-02 a0= 1.1000000 keta= 4.0000000e-02 a1= 0.00 a2= 1.0000000 ags= -1.0000000e-02 b0= 0.00 b1= 0.00 voff= -2.9999999e-02 nfactor= 1.5000000 cit= 0.00 cdsc= 0.00 cdscb= 0.00 cdscd= 0.00 eta0= 0.1500000 etab= 0.00 dsub= 0.6000000 pclm= 0.1000000 pdiblc1= 1.2000000e-02 pdiblc2= 7.5000000e-03 pdiblcb= -1.3500000e-02 drout= 2.0000000 pscbe1= 8.6600000e+08 pscbe2= 1.0000000e-20 pvag= -0.2800000 delta= 1.0000000e-02 alpha0= 0.00 beta0= 30.0000000 kt1= -0.3700000 kt2= -4.0000000e-02 at= 5.5000000e+04 ute= -1.4800000 ua1= 9.5829000e-10 ub1= -3.3473000e-19 uc1= 0.00 kt1l= 4.0000000e-09 prt= 0.00 cj= 0.0015 mj= 0.72 pb= 1.25 cjsw= 2e-10 mjsw= 0.37 php= 0.773 cjgate= 2e-14 cta= 0 ctp= 0 pta= 0 ptp= 0 js=1.50e-08 jsw=2.50e-13 n=1.0 xti=3.0 cgdo=3.493e-10 cgso=3.493e-10 cgbo=0.0e+00 capmod= 2 nqsmod= 0 elm= 5 xpart= 1 cgsl= 0.582e-10 cgdl= 0.582e-10 ckappa= 0.28 cf= 1.177e-10 clc= 1.0000000e-07 cle= 0.6000000 dlc= 2e-08 dwc= 0
	* Unrecognized parameter "binflag" -- ignored
	* Unrecognized parameter "rsc" -- ignored
	* Unrecognized parameter "rdc" -- ignored
	* Unrecognized parameter "cjgate" -- ignored
Warning: Pd = 0 is less than W.
Warning: Ps = 0 is less than W.
Warning: Pd = 0 is less than W.
Warning: Ps = 0 is less than W.
Direct Newton iteration for .op point succeeded.

Date: Wed Mar 02 17:22:29 2022
Total elapsed time: 1.151 seconds.

tnom = 27
temp = 27
method = modified trap
totiter = 128807
traniter = 128801
tranpoints = 64334
accept = 64294
rejected = 40
matrix size = 8
fillins = 0
solver = Normal
Matrix Compiler1:      19 opcodes  0.1/[0.1]/0.2
Matrix Compiler2: 670 bytes object code size  0.1/0.2/[0.1]

